0_0
     RDKit          3D

 31 34  0  0  0  0  0  0  0  0999 V2000
  -12.6241  -34.8820   -5.9622 C   0  0  0  0  0  0  0  0  0  0  0  0
  -11.3651  -34.3797   -6.6479 C   0  0  0  0  0  0  0  0  0  0  0  0
  -11.2565  -32.9629   -6.5241 O   0  0  0  0  0  0  0  0  0  0  0  0
  -10.5888  -32.5165   -5.3359 C   0  0  2  0  0  0  0  0  0  0  0  0
  -11.6402  -32.4074   -4.2379 C   0  0  0  0  0  0  0  0  0  0  0  0
  -11.0637  -31.8217   -2.9532 C   0  0  0  0  0  0  0  0  0  0  0  0
  -10.4117  -30.5361   -3.1830 N   0  0  0  0  0  0  0  0  0  0  0  0
   -9.4228  -30.4977   -4.2732 C   0  0  2  0  0  0  0  0  0  0  0  0
   -9.9495  -31.1491   -5.5648 C   0  0  0  0  0  0  0  0  0  0  0  0
   -7.9980  -30.9459   -3.9315 C   0  0  0  0  0  0  0  0  0  0  0  0
   -7.7885  -32.2855   -3.5484 C   0  0  0  0  0  0  0  0  0  0  0  0
   -6.5147  -32.7570   -3.2154 C   0  0  0  0  0  0  0  0  0  0  0  0
   -5.4172  -31.8945   -3.2586 C   0  0  0  0  0  0  0  0  0  0  0  0
   -5.6071  -30.5624   -3.6366 C   0  0  0  0  0  0  0  0  0  0  0  0
   -6.8845  -30.0947   -3.9671 C   0  0  0  0  0  0  0  0  0  0  0  0
   -4.0462  -32.3438   -2.9177 C   0  0  0  0  0  0  0  0  0  0  0  0
   -3.7073  -33.4900   -2.6870 O   0  0  0  0  0  0  0  0  0  0  0  0
   -3.1596  -31.3331   -2.8845 O   0  0  0  0  0  0  0  0  0  0  0  0
   -9.9390  -29.8844   -1.9495 C   0  0  0  0  0  0  0  0  0  0  0  0
  -10.0521  -28.3722   -1.9844 C   0  0  0  0  0  0  0  0  0  0  0  0
  -11.3197  -27.7561   -1.9856 C   0  0  0  0  0  0  0  0  0  0  0  0
  -11.4703  -26.3698   -2.0474 C   0  0  0  0  0  0  0  0  0  0  0  0
  -10.3619  -25.5091   -2.0719 C   0  0  0  0  0  0  0  0  0  0  0  0
   -9.0991  -26.1272   -2.0468 C   0  0  0  0  0  0  0  0  0  0  0  0
   -8.9212  -27.5147   -2.0089 C   0  0  0  0  0  0  0  0  0  0  0  0
   -7.5122  -27.7487   -2.0025 C   0  0  0  0  0  0  0  0  0  0  0  0
   -6.8756  -26.5314   -2.0323 C   0  0  0  0  0  0  0  0  0  0  0  0
   -7.8392  -25.5631   -2.0603 N   0  0  0  0  0  0  0  0  0  0  0  0
  -10.5863  -24.0258   -2.1293 C   0  0  0  0  0  0  0  0  0  0  0  0
  -12.4401  -28.5536   -1.9987 O   0  0  0  0  0  0  0  0  0  0  0  0
  -12.9294  -28.7542   -0.6702 C   0  0  0  0  0  0  0  0  0  0  0  0
  1  2  1  0
  2  3  1  0
  4  3  1  6
  4  5  1  0
  5  6  1  0
  6  7  1  0
  7  8  1  0
  8  9  1  6
  8 10  1  0
 10 11  2  0
 11 12  1  0
 12 13  2  0
 13 14  1  0
 14 15  2  0
 13 16  1  0
 16 17  2  0
 16 18  1  0
  7 19  1  0
 19 20  1  0
 20 21  2  0
 21 22  1  0
 22 23  2  0
 23 24  1  0
 24 25  2  0
 25 26  1  0
 26 27  2  0
 27 28  1  0
 23 29  1  0
 21 30  1  0
 30 31  1  0
  9  4  1  0
 15 10  1  0
 25 20  1  0
 28 24  1  0
M  END
>  <CHROM.0>  (1) 
177.98868454,-10.96581015,68.25688667,72.95003567,59.94045328

>  <CHROM.1>  (1) 
87.85071899,-87.16121266,64.16237567,6.76282132,-145.04512294,68.08199637
95.39835777,-9.03235238,-30.05723080,-3.24419814,1.24289864,0.14162536,-2.71965047

>  <CID>  (1) 
4.0

>  <Energy>  (1) 
51.145524

>  <ID>  (1) 
0_0

>  <Name>  (1) 
IPTACOPAN

>  <RI>  (1) 
2.41008e+07

>  <Rbt.Current_Directory>  (1) 
/mnt/ct-data/research/SITALA/IPTACOPAN/docking_rDock/Chembl/CHEMBL4594448/lessCavity

>  <Rbt.Executable>  (1) 
rbdock ($Id: //depot/dev/client3/rdock/2013.1/src/exe/rbdock.cxx#4 $)

>  <Rbt.Library>  (1) 
libRbt.so (2013.1, Build901 2013/11/27)

>  <Rbt.Parameter_File>  (1) 
/home/adria/.conda/envs/rdock/share/rdock-2013.1-1/data/scripts/dock.prm

>  <Rbt.Receptor>  (1) 
system2.prm

>  <SCORE>  (1) 
-38.8152

>  <SCORE.INTER>  (1) 
-28.9777

>  <SCORE.INTER.CONST>  (1) 
1

>  <SCORE.INTER.POLAR>  (1) 
-1.72208

>  <SCORE.INTER.REPUL>  (1) 
0

>  <SCORE.INTER.ROT>  (1) 
7

>  <SCORE.INTER.VDW>  (1) 
-35.5226

>  <SCORE.INTER.norm>  (1) 
-0.934764

>  <SCORE.INTRA>  (1) 
1.15447

>  <SCORE.INTRA.DIHEDRAL>  (1) 
2.73681

>  <SCORE.INTRA.DIHEDRAL.0>  (1) 
10.9659

>  <SCORE.INTRA.POLAR>  (1) 
0

>  <SCORE.INTRA.POLAR.0>  (1) 
0

>  <SCORE.INTRA.REPUL>  (1) 
0

>  <SCORE.INTRA.REPUL.0>  (1) 
0

>  <SCORE.INTRA.VDW>  (1) 
-0.213934

>  <SCORE.INTRA.VDW.0>  (1) 
-1.66066

>  <SCORE.INTRA.norm>  (1) 
0.0372411

>  <SCORE.RESTR>  (1) 
0.0

>  <SCORE.RESTR.CAVITY>  (1) 
0

>  <SCORE.RESTR.norm>  (1) 
0

>  <SCORE.SYSTEM>  (1) 
-10.992

>  <SCORE.SYSTEM.CONST>  (1) 
0

>  <SCORE.SYSTEM.DIHEDRAL>  (1) 
1.31728

>  <SCORE.SYSTEM.POLAR>  (1) 
-3.50461

>  <SCORE.SYSTEM.REPUL>  (1) 
0.211188

>  <SCORE.SYSTEM.VDW>  (1) 
-0.790863

>  <SCORE.SYSTEM.norm>  (1) 
-0.35458

>  <SCORE.heavy>  (1) 
31

>  <SCORE.norm>  (1) 
-1.2521

>  <Smile>  (1) 
CCOC1CCN(C(C1)C2=CC=C(C=C2)C(=O)O)CC3=C(C=C(C4=C3C=CN4)C)OC

$$$$
